 15 
 
 C       15.114854104   4.437059620  11.191860300
 C       14.216671786   4.052577994  10.234671786
 H       14.242660183   3.035013891   9.846170615
 C       13.277007523   4.987058243   9.703082702
 C       12.405978464   4.618661015   8.601314259
 O       11.597824789   5.537122969   8.130201961
 O       12.499264892   3.424265581   8.114112141
 C       13.317441134   6.321903893  10.208889347
 H       12.647991325   7.078061185   9.800409512
 C       14.233176295   6.676165287  11.162229798
 H       14.328822244   7.685165779  11.560589955
 N       15.118943929   5.738633483  11.657527822
 H       15.863173456   3.771081771  11.618871124
 H       15.815382550   6.022557237  12.338832007
 H        9.216814363   4.960520988   8.009059216   
