         144

 O                      3.4979973       1.2783966      0.26996166    
 Ti                     1.7500000      0.63999999       1.0000000    
 O                      6.2612352       2.2875752       1.1524407    
 O                     2.00250000E-03  1.60339999E-03   1.7300384    
 Ti                     4.5132713       1.6491908       1.8824677    
 O                      2.7653008       1.0108041       2.6125491    
 O                      4.7987013       1.7534344       3.7997630    
 Ti                     3.0507042       1.1150379       4.5298014    
 O                      7.5619397       2.7626128       4.6822419    
 O                      1.3027068      0.47664136       5.2598395    
 Ti                     5.8139753       2.1242287       5.4122686    
 O                      4.0660048       1.4858420       6.1423502    
 O                      9.0245972       1.2783966      0.26996166    
 Ti                     7.2765999      0.63999999       1.0000000    
 O                      11.787835       2.2875752       1.1524407    
 O                      5.5286026      1.60339999E-03   1.7300384    
 Ti                     10.039871       1.6491908       1.8824677    
 O                      8.2919006       1.0108041       2.6125491    
 O                      10.325301       1.7534344       3.7997630    
 Ti                     8.5773039       1.1150379       4.5298014    
 O                      13.088539       2.7626128       4.6822419    
 O                      6.8293066      0.47664136       5.2598395    
 Ti                     11.340575       2.1242287       5.4122686    
 O                      9.5926046       1.4858420       6.1423502    
 O                      14.551197       1.2783966      0.26996166    
 Ti                     12.803200      0.63999999       1.0000000    
 O                      17.314434       2.2875752       1.1524407    
 O                      11.055202      1.60339999E-03   1.7300384    
 Ti                     15.566471       1.6491908       1.8824677    
 O                      13.818501       1.0108041       2.6125491    
 O                      15.851901       1.7534344       3.7997630    
 Ti                     14.103904       1.1150379       4.5298014    
 O                      18.615139       2.7626128       4.6822419    
 O                      12.355906      0.47664136       5.2598395    
 Ti                     16.867176       2.1242287       5.4122686    
 O                      15.119205       1.4858420       6.1423502    
 O                      7.7236972       4.8400965      0.26996166    
 Ti                     5.9756999       4.2017002       1.0000000    
 O                      10.486935       5.8492756       1.1524407    
 O                      4.2277026       3.5633035       1.7300384    
 Ti                     8.7389717       5.2108908       1.8824677    
 O                      6.9910007       4.5725040       2.6125491    
 O                      9.0244007       5.3151345       3.7997630    
 Ti                     7.2764044       4.6767378       4.5298014    
 O                      11.787640       6.3243132       4.6822419    
 O                      5.5284066       4.0383415       5.2598395    
 Ti                     10.039675       5.6859288       5.4122686    
 O                      8.2917042       5.0475421       6.1423502    
 O                      13.250298       4.8400965      0.26996166    
 Ti                     11.502300       4.2017002       1.0000000    
 O                      16.013535       5.8492756       1.1524407    
 O                      9.7543030       3.5633035       1.7300384    
 Ti                     14.265572       5.2108908       1.8824677    
 O                      12.517601       4.5725040       2.6125491    
 O                      14.551001       5.3151345       3.7997630    
 Ti                     12.803003       4.6767378       4.5298014    
 O                      17.314240       6.3243132       4.6822419    
 O                      11.055006       4.0383415       5.2598395    
 Ti                     15.566275       5.6859288       5.4122686    
 O                      13.818304       5.0475421       6.1423502    
 O                      18.776897       4.8400965      0.26996166    
 Ti                     17.028900       4.2017002       1.0000000    
 O                      21.540134       5.8492756       1.1524407    
 O                      15.280903       3.5633035       1.7300384    
 Ti                     19.792171       5.2108908       1.8824677    
 O                      18.044201       4.5725040       2.6125491    
 O                      20.077600       5.3151345       3.7997630    
 Ti                     18.329603       4.6767378       4.5298014    
 O                      22.840839       6.3243132       4.6822419    
 O                      16.581606       4.0383415       5.2598395    
 Ti                     21.092876       5.6859288       5.4122686    
 O                      19.344904       5.0475421       6.1423502    
 O                      11.949397       8.4017963      0.26996166    
 Ti                     10.201400       7.7634001       1.0000000    
 O                      14.712635       9.4109755       1.1524407    
 O                      8.4534025       7.1250038       1.7300384    
 Ti                     12.964671       8.7725906       1.8824677    
 O                      11.216701       8.1342039       2.6125491    
 O                      13.250101       8.8768349       3.7997630    
 Ti                     11.502104       8.2384377       4.5298014    
 O                      16.013340       9.8860130       4.6822419    
 O                      9.7541065       7.6000414       5.2598395    
 Ti                     14.265375       9.2476292       5.4122686    
 O                      12.517405       8.6092424       6.1423502    
 O                      17.475998       8.4017963      0.26996166    
 Ti                     15.728000       7.7634001       1.0000000    
 O                      20.239235       9.4109755       1.1524407    
 O                      13.980002       7.1250038       1.7300384    
 Ti                     18.491272       8.7725906       1.8824677    
 O                      16.743301       8.1342039       2.6125491    
 O                      18.776701       8.8768349       3.7997630    
 Ti                     17.028704       8.2384377       4.5298014    
 O                      21.539940       9.8860130       4.6822419    
 O                      15.280706       7.6000414       5.2598395    
 Ti                     19.791975       9.2476292       5.4122686    
 O                      18.044004       8.6092424       6.1423502    
 O                      23.002598       8.4017963      0.26996166    
 Ti                     21.254601       7.7634001       1.0000000    
 O                      25.765835       9.4109755       1.1524407    
 O                      19.506603       7.1250038       1.7300384    
 Ti                     24.017872       8.7725906       1.8824677    
 O                      22.269901       8.1342039       2.6125491    
 O                      24.303301       8.8768349       3.7997630    
 Ti                     22.555304       8.2384377       4.5298014    
 O                      27.066540       9.8860130       4.6822419    
 O                      20.807306       7.6000414       5.2598395    
 Ti                     25.318577       9.2476292       5.4122686    
 O                      23.570604       8.6092424       6.1423502    
 O                      16.175097       11.963497      0.26996166    
 Ti                     14.427099       11.325100       1.0000000    
 O                      18.938335       12.972675       1.1524407    
 O                      12.679102       10.686704       1.7300384    
 Ti                     17.190371       12.334291       1.8824677    
 O                      15.442400       11.695905       2.6125491    
 O                      17.475801       12.438535       3.7997630    
 Ti                     15.727804       11.800138       4.5298014    
 O                      20.239040       13.447713       4.6822419    
 O                      13.979807       11.161741       5.2598395    
 Ti                     18.491076       12.809329       5.4122686    
 O                      16.743105       12.170942       6.1423502    
 O                      21.701696       11.963497      0.26996166    
 Ti                     19.953699       11.325100       1.0000000    
 O                      24.464935       12.972675       1.1524407    
 O                      18.205702       10.686704       1.7300384    
 Ti                     22.716970       12.334291       1.8824677    
 O                      20.969000       11.695905       2.6125491    
 O                      23.002401       12.438535       3.7997630    
 Ti                     21.254404       11.800138       4.5298014    
 O                      25.765638       13.447713       4.6822419    
 O                      19.506407       11.161741       5.2598395    
 Ti                     24.017675       12.809329       5.4122686    
 O                      22.269705       12.170942       6.1423502    
 O                      27.228296       11.963497      0.26996166    
 Ti                     25.480299       11.325100       1.0000000    
 O                      29.991533       12.972675       1.1524407    
 O                      23.732302       10.686704       1.7300384    
 Ti                     28.243570       12.334291       1.8824677    
 O                      26.495600       11.695905       2.6125491    
 O                      28.529001       12.438535       3.7997630    
 Ti                     26.781004       11.800138       4.5298014    
 O                      31.292238       13.447713       4.6822419    
 O                      25.033007       11.161741       5.2598395    
 Ti                     29.544275       12.809329       5.4122686    
 O                      27.796305       12.170942       6.1423502    
