          72

 O                      4.7987013       1.7534344       3.7997630    
 Ti                     3.0507042       1.1150379       4.5298014    
 O                      7.5619397       2.7626128       4.6822419    
 O                      1.3027068      0.47664136       5.2598395    
 Ti                     5.8139753       2.1242287       5.4122686    
 O                      4.0660048       1.4858420       6.1423502    
 O                      10.325301       1.7534344       3.7997630    
 Ti                     8.5773039       1.1150379       4.5298014    
 O                      13.088539       2.7626128       4.6822419    
 O                      6.8293066      0.47664136       5.2598395    
 Ti                     11.340575       2.1242287       5.4122686    
 O                      9.5926046       1.4858420       6.1423502    
 O                      15.851901       1.7534344       3.7997630    
 Ti                     14.103904       1.1150379       4.5298014    
 O                      18.615139       2.7626128       4.6822419    
 O                      12.355906      0.47664136       5.2598395    
 Ti                     16.867176       2.1242287       5.4122686    
 O                      15.119205       1.4858420       6.1423502    
 O                      9.0244007       5.3151345       3.7997630    
 Ti                     7.2764044       4.6767378       4.5298014    
 O                      11.787640       6.3243132       4.6822419    
 O                      5.5284066       4.0383415       5.2598395    
 Ti                     10.039675       5.6859288       5.4122686    
 O                      8.2917042       5.0475421       6.1423502    
 O                      14.551001       5.3151345       3.7997630    
 Ti                     12.803003       4.6767378       4.5298014    
 O                      17.314240       6.3243132       4.6822419    
 O                      11.055006       4.0383415       5.2598395    
 Ti                     15.566275       5.6859288       5.4122686    
 O                      13.818304       5.0475421       6.1423502    
 O                      20.077600       5.3151345       3.7997630    
 Ti                     18.329603       4.6767378       4.5298014    
 O                      22.840839       6.3243132       4.6822419    
 O                      16.581606       4.0383415       5.2598395    
 Ti                     21.092876       5.6859288       5.4122686    
 O                      19.344904       5.0475421       6.1423502    
 O                      13.250101       8.8768349       3.7997630    
 Ti                     11.502104       8.2384377       4.5298014    
 O                      16.013340       9.8860130       4.6822419    
 O                      9.7541065       7.6000414       5.2598395    
 Ti                     14.265375       9.2476292       5.4122686    
 O                      12.517405       8.6092424       6.1423502    
 O                      18.776701       8.8768349       3.7997630    
 Ti                     17.028704       8.2384377       4.5298014    
 O                      21.539940       9.8860130       4.6822419    
 O                      15.280706       7.6000414       5.2598395    
 Ti                     19.791975       9.2476292       5.4122686    
 O                      18.044004       8.6092424       6.1423502    
 O                      24.303301       8.8768349       3.7997630    
 Ti                     22.555304       8.2384377       4.5298014    
 O                      27.066540       9.8860130       4.6822419    
 O                      20.807306       7.6000414       5.2598395    
 Ti                     25.318577       9.2476292       5.4122686    
 O                      23.570604       8.6092424       6.1423502    
 O                      17.475801       12.438535       3.7997630    
 Ti                     15.727804       11.800138       4.5298014    
 O                      20.239040       13.447713       4.6822419    
 O                      13.979807       11.161741       5.2598395    
 Ti                     18.491076       12.809329       5.4122686    
 O                      16.743105       12.170942       6.1423502    
 O                      23.002401       12.438535       3.7997630    
 Ti                     21.254404       11.800138       4.5298014    
 O                      25.765638       13.447713       4.6822419    
 O                      19.506407       11.161741       5.2598395    
 Ti                     24.017675       12.809329       5.4122686    
 O                      22.269705       12.170942       6.1423502    
 O                      28.529001       12.438535       3.7997630    
 Ti                     26.781004       11.800138       4.5298014    
 O                      31.292238       13.447713       4.6822419    
 O                      25.033007       11.161741       5.2598395    
 Ti                     29.544275       12.809329       5.4122686    
 O                      27.796305       12.170942       6.1423502    
