         192

 O                      3.4979973       1.2783966      0.26996166    
 Ti                     1.7500000      0.63999999       1.0000000    
 O                      6.2612352       2.2875752       1.1524407    
 O                     2.00250000E-03  1.60339999E-03   1.7300384    
 Ti                     4.5132713       1.6491908       1.8824677    
 O                      2.7653008       1.0108041       2.6125491    
 O                      4.7987013       1.7534344       3.7997630    
 Ti                     3.0507042       1.1150379       4.5298014    
 O                      7.5619397       2.7626128       4.6822419    
 O                      1.3027068      0.47664136       5.2598395    
 Ti                     5.8139753       2.1242287       5.4122686    
 O                      4.0660048       1.4858420       6.1423502    
 O                      9.0245972       1.2783966      0.26996166    
 Ti                     7.2765999      0.63999999       1.0000000    
 O                      11.787835       2.2875752       1.1524407    
 O                      5.5286026      1.60339999E-03   1.7300384    
 Ti                     10.039871       1.6491908       1.8824677    
 O                      8.2919006       1.0108041       2.6125491    
 O                      10.325301       1.7534344       3.7997630    
 Ti                     8.5773039       1.1150379       4.5298014    
 O                      13.088539       2.7626128       4.6822419    
 O                      6.8293066      0.47664136       5.2598395    
 Ti                     11.340575       2.1242287       5.4122686    
 O                      9.5926046       1.4858420       6.1423502    
 O                      14.551197       1.2783966      0.26996166    
 Ti                     12.803200      0.63999999       1.0000000    
 O                      17.314434       2.2875752       1.1524407    
 O                      11.055202      1.60339999E-03   1.7300384    
 Ti                     15.566471       1.6491908       1.8824677    
 O                      13.818501       1.0108041       2.6125491    
 O                      15.851901       1.7534344       3.7997630    
 Ti                     14.103904       1.1150379       4.5298014    
 O                      18.615139       2.7626128       4.6822419    
 O                      12.355906      0.47664136       5.2598395    
 Ti                     16.867176       2.1242287       5.4122686    
 O                      15.119205       1.4858420       6.1423502    
 O                      20.077797       1.2783966      0.26996166    
 Ti                     18.329800      0.63999999       1.0000000    
 O                      22.841034       2.2875752       1.1524407    
 O                      16.581802      1.60339999E-03   1.7300384    
 Ti                     21.093071       1.6491908       1.8824677    
 O                      19.345100       1.0108041       2.6125491    
 O                      21.378502       1.7534344       3.7997630    
 Ti                     19.630505       1.1150379       4.5298014    
 O                      24.141739       2.7626128       4.6822419    
 O                      17.882507      0.47664136       5.2598395    
 Ti                     22.393776       2.1242287       5.4122686    
 O                      20.645805       1.4858420       6.1423502    
 O                      7.7229972       4.8393965      0.26996166    
 Ti                     5.9749999       4.2010002       1.0000000    
 O                      10.486235       5.8485756       1.1524407    
 O                      4.2270026       3.5626035       1.7300384    
 Ti                     8.7382717       5.2101908       1.8824677    
 O                      6.9903007       4.5718040       2.6125491    
 O                      9.0237007       5.3144345       3.7997630    
 Ti                     7.2757044       4.6760378       4.5298014    
 O                      11.786940       6.3236132       4.6822419    
 O                      5.5277066       4.0376415       5.2598395    
 Ti                     10.038975       5.6852288       5.4122686    
 O                      8.2910042       5.0468421       6.1423502    
 O                      13.249598       4.8393965      0.26996166    
 Ti                     11.501600       4.2010002       1.0000000    
 O                      16.012835       5.8485756       1.1524407    
 O                      9.7536030       3.5626035       1.7300384    
 Ti                     14.264872       5.2101908       1.8824677    
 O                      12.516901       4.5718040       2.6125491    
 O                      14.550301       5.3144345       3.7997630    
 Ti                     12.802303       4.6760378       4.5298014    
 O                      17.313540       6.3236132       4.6822419    
 O                      11.054306       4.0376415       5.2598395    
 Ti                     15.565575       5.6852288       5.4122686    
 O                      13.817604       5.0468421       6.1423502    
 O                      18.776197       4.8393965      0.26996166    
 Ti                     17.028200       4.2010002       1.0000000    
 O                      21.539434       5.8485756       1.1524407    
 O                      15.280203       3.5626035       1.7300384    
 Ti                     19.791471       5.2101908       1.8824677    
 O                      18.043501       4.5718040       2.6125491    
 O                      20.076900       5.3144345       3.7997630    
 Ti                     18.328903       4.6760378       4.5298014    
 O                      22.840139       6.3236132       4.6822419    
 O                      16.580906       4.0376415       5.2598395    
 Ti                     21.092176       5.6852288       5.4122686    
 O                      19.344204       5.0468421       6.1423502    
 O                      24.302797       4.8393965      0.26996166    
 Ti                     22.554800       4.2010002       1.0000000    
 O                      27.066034       5.8485756       1.1524407    
 O                      20.806803       3.5626035       1.7300384    
 Ti                     25.318071       5.2101908       1.8824677    
 O                      23.570101       4.5718040       2.6125491    
 O                      25.603502       5.3144345       3.7997630    
 Ti                     23.855505       4.6760378       4.5298014    
 O                      28.366739       6.3236132       4.6822419    
 O                      22.107508       4.0376415       5.2598395    
 Ti                     26.618776       5.6852288       5.4122686    
 O                      24.870806       5.0468421       6.1423502    
 O                      11.947997       8.4003963      0.26996166    
 Ti                     10.200000       7.7620001       1.0000000    
 O                      14.711235       9.4095755       1.1524407    
 O                      8.4520025       7.1236038       1.7300384    
 Ti                     12.963271       8.7711906       1.8824677    
 O                      11.215301       8.1328039       2.6125491    
 O                      13.248701       8.8754349       3.7997630    
 Ti                     11.500704       8.2370377       4.5298014    
 O                      16.011940       9.8846130       4.6822419    
 O                      9.7527065       7.5986414       5.2598395    
 Ti                     14.263975       9.2462292       5.4122686    
 O                      12.516005       8.6078424       6.1423502    
 O                      17.474598       8.4003963      0.26996166    
 Ti                     15.726600       7.7620001       1.0000000    
 O                      20.237835       9.4095755       1.1524407    
 O                      13.978602       7.1236038       1.7300384    
 Ti                     18.489872       8.7711906       1.8824677    
 O                      16.741901       8.1328039       2.6125491    
 O                      18.775301       8.8754349       3.7997630    
 Ti                     17.027304       8.2370377       4.5298014    
 O                      21.538540       9.8846130       4.6822419    
 O                      15.279306       7.5986414       5.2598395    
 Ti                     19.790575       9.2462292       5.4122686    
 O                      18.042604       8.6078424       6.1423502    
 O                      23.001198       8.4003963      0.26996166    
 Ti                     21.253201       7.7620001       1.0000000    
 O                      25.764435       9.4095755       1.1524407    
 O                      19.505203       7.1236038       1.7300384    
 Ti                     24.016472       8.7711906       1.8824677    
 O                      22.268501       8.1328039       2.6125491    
 O                      24.301901       8.8754349       3.7997630    
 Ti                     22.553904       8.2370377       4.5298014    
 O                      27.065140       9.8846130       4.6822419    
 O                      20.805906       7.5986414       5.2598395    
 Ti                     25.317177       9.2462292       5.4122686    
 O                      23.569204       8.6078424       6.1423502    
 O                      28.527798       8.4003963      0.26996166    
 Ti                     26.779800       7.7620001       1.0000000    
 O                      31.291035       9.4095755       1.1524407    
 O                      25.031803       7.1236038       1.7300384    
 Ti                     29.543072       8.7711906       1.8824677    
 O                      27.795101       8.1328039       2.6125491    
 O                      29.828503       8.8754349       3.7997630    
 Ti                     28.080505       8.2370377       4.5298014    
 O                      32.591740       9.8846130       4.6822419    
 O                      26.332508       7.5986414       5.2598395    
 Ti                     30.843777       9.2462292       5.4122686    
 O                      29.095806       8.6078424       6.1423502    
 O                      16.172997       11.961397      0.26996166    
 Ti                     14.424999       11.323000       1.0000000    
 O                      18.936235       12.970575       1.1524407    
 O                      12.677002       10.684604       1.7300384    
 Ti                     17.188271       12.332191       1.8824677    
 O                      15.440300       11.693805       2.6125491    
 O                      17.473701       12.436435       3.7997630    
 Ti                     15.725704       11.798038       4.5298014    
 O                      20.236938       13.445613       4.6822419    
 O                      13.977707       11.159641       5.2598395    
 Ti                     18.488976       12.807229       5.4122686    
 O                      16.741005       12.168842       6.1423502    
 O                      21.699596       11.961397      0.26996166    
 Ti                     19.951599       11.323000       1.0000000    
 O                      24.462835       12.970575       1.1524407    
 O                      18.203602       10.684604       1.7300384    
 Ti                     22.714870       12.332191       1.8824677    
 O                      20.966900       11.693805       2.6125491    
 O                      23.000301       12.436435       3.7997630    
 Ti                     21.252304       11.798038       4.5298014    
 O                      25.763538       13.445613       4.6822419    
 O                      19.504307       11.159641       5.2598395    
 Ti                     24.015575       12.807229       5.4122686    
 O                      22.267605       12.168842       6.1423502    
 O                      27.226196       11.961397      0.26996166    
 Ti                     25.478199       11.323000       1.0000000    
 O                      29.989433       12.970575       1.1524407    
 O                      23.730202       10.684604       1.7300384    
 Ti                     28.241470       12.332191       1.8824677    
 O                      26.493500       11.693805       2.6125491    
 O                      28.526901       12.436435       3.7997630    
 Ti                     26.778904       11.798038       4.5298014    
 O                      31.290138       13.445613       4.6822419    
 O                      25.030907       11.159641       5.2598395    
 Ti                     29.542175       12.807229       5.4122686    
 O                      27.794205       12.168842       6.1423502    
 O                      32.752796       11.961397      0.26996166    
 Ti                     31.004799       11.323000       1.0000000    
 O                      35.516033       12.970575       1.1524407    
 O                      29.256802       10.684604       1.7300384    
 Ti                     33.768070       12.332191       1.8824677    
 O                      32.020100       11.693805       2.6125491    
 O                      34.053501       12.436435       3.7997630    
 Ti                     32.305504       11.798038       4.5298014    
 O                      36.816738       13.445613       4.6822419    
 O                      30.557507       11.159641       5.2598395    
 Ti                     35.068775       12.807229       5.4122686    
 O                      33.320805       12.168842       6.1423502    
