12

O	1.747997400	.638396538	-.73003832
Ti	0.	0.	0.
O	4.511235320	1.647575111	.152440653
O	-1.747997400	-.638396538	.730038322
Ti	2.763271334	1.009190776	.882467677
O	1.015300797	.370804049	1.612549019
O	3.048701605	1.113434465	2.799762868
Ti	1.300704205	.475037927	3.529801188
O	5.811939525	2.122613038	3.682241841
O	-.447293195	-.163358611	4.259839510
Ti	4.063975539	1.484228703	4.412268865
O	2.316005002	.845841976	5.142350207
