          18

 B                      0.0000000       0.0000000       0.0000000    
 N                      1.3300000       1.3300000       0.0000000    
 B                      2.0000000       0.0000000       0.0000000    
 N                      3.3299999       1.3300000       0.0000000    
 B                      4.0000000       0.0000000       0.0000000    
 N                      5.3299999       1.3300000       0.0000000    
 B                      1.0000000       1.7000000       0.0000000    
 N                      2.3299999       3.0300002       0.0000000    
 B                      3.0000000       1.7000000       0.0000000    
 N                      4.3299999       3.0300002       0.0000000    
 B                      5.0000000       1.7000000       0.0000000    
 N                      6.3299999       3.0300002       0.0000000    
 B                      2.0000000       3.4000001       0.0000000    
 N                      3.3299999       4.7300000       0.0000000    
 B                      4.0000000       3.4000001       0.0000000    
 N                      5.3299999       4.7300000       0.0000000    
 B                      6.0000000       3.4000001       0.0000000    
 N                      7.3299999       4.7300000       0.0000000    
