36
          
 Ti                     0.0000000       0.0000000       0.0000000    
 S                      1.0000000       0.0000000       0.0000000    
 O                      0.0000000       1.0000000       0.0000000    
 Ti                     10.000000       0.0000000       0.0000000    
 S                      11.000000       0.0000000       0.0000000    
 O                      10.000000       1.0000000       0.0000000    
 Ti                     20.000000       0.0000000       0.0000000    
 S                      21.000000       0.0000000       0.0000000    
 O                      20.000000       1.0000000       0.0000000    
 Ti                     30.000000       0.0000000       0.0000000    
 S                      31.000000       0.0000000       0.0000000    
 O                      30.000000       1.0000000       0.0000000    
 Ti                     0.0000000       10.000000       0.0000000    
 S                      1.0000000       10.000000       0.0000000    
 O                      0.0000000       11.000000       0.0000000    
 Ti                     10.000000       10.000000       0.0000000    
 S                      11.000000       10.000000       0.0000000    
 O                      10.000000       11.000000       0.0000000    
 Ti                     20.000000       10.000000       0.0000000    
 S                      21.000000       10.000000       0.0000000    
 O                      20.000000       11.000000       0.0000000    
 Ti                     30.000000       10.000000       0.0000000    
 S                      31.000000       10.000000       0.0000000    
 O                      30.000000       11.000000       0.0000000    
 Ti                     0.0000000       20.000000       0.0000000    
 S                      1.0000000       20.000000       0.0000000    
 O                      0.0000000       21.000000       0.0000000    
 Ti                     10.000000       20.000000       0.0000000    
 S                      11.000000       20.000000       0.0000000    
 O                      10.000000       21.000000       0.0000000    
 Ti                     20.000000       20.000000       0.0000000    
 S                      21.000000       20.000000       0.0000000    
 O                      20.000000       21.000000       0.0000000    
 Ti                     30.000000       20.000000       0.0000000    
 S                      31.000000       20.000000       0.0000000    
 O                      30.000000       21.000000       0.0000000    
