18

 Ti                     0.0000000       0.0000000       0.0000000    
 S                      2.5000000       0.0000000       0.0000000    
 O                      0.0000000       3.0000000       0.0000000    
 Ti                     5.0000000       0.0000000       0.0000000    
 S                      7.5000000       0.0000000       0.0000000    
 O                      5.0000000       3.0000000       0.0000000    
 Ti                     10.000000       0.0000000       0.0000000    
 S                      12.500000       0.0000000       0.0000000    
 O                      10.000000       3.0000000       0.0000000    
 Ti                     3.0000000       4.0000000       0.0000000    
 S                      5.5000000       4.0000000       0.0000000    
 O                      3.0000000       7.0000000       0.0000000    
 Ti                     8.0000000       4.0000000       0.0000000    
 S                      10.500000       4.0000000       0.0000000    
 O                      8.0000000       7.0000000       0.0000000    
 Ti                     13.000000       4.0000000       0.0000000    
 S                      15.500000       4.0000000       0.0000000    
 O                      13.000000       7.0000000       0.0000000    
